Circuit: * C:\git\BME\Digital_guitar_effect\pcb\simulations\input_stage_sim\AD1939_input_with_offset.asc

WARNING: Node N004 is floating.
WARNING: Node N012 is floating.
WARNING: Node NC_02 is floating.

WARNING: Less than two connections to node NC_01.  This node is used by R14.
WARNING: Less than two connections to node NC_02.  This node is used by R14.
WARNING: Less than two connections to node NC_03.  This node is used by R1.
WARNING: Less than two connections to node NC_04.  This node is used by R7.
Direct Newton iteration failed to find .op point.  (Use ".option noopiter" to skip.)
Starting Gmin stepping
Gmin = 10
Gmin = 1.07374
Gmin = 0.115292
Gmin = 0.0123794
Gmin = 0.00132923
Gmin = 0.000142725
Gmin = 1.5325e-005
Gmin = 1.6455e-006
Gmin = 1.76685e-007
Gmin = 1.89714e-008
Gmin = 2.03704e-009
Gmin = 2.18725e-010
Gmin = 2.34854e-011
Gmin = 2.52173e-012
Gmin = 2.70769e-013
Gmin = 0
Gmin stepping succeeded in finding the operating point.


Date: Thu Sep 28 12:32:45 2023
Total elapsed time: 1.752 seconds.

tnom = 27
temp = 27
method = modified trap
totiter = 56603
traniter = 56240
tranpoints = 28121
accept = 19439
rejected = 8682
matrix size = 40
fillins = 26
solver = Normal
Matrix Compiler1: 3.24 KB object code size  2.2/1.2/[0.5]
Matrix Compiler2: 4.41 KB object code size  5.1/6.5/[1.4]

