Circuit: * C:\Projects\git\onlab\Digital_guitar_effect\pcb\simulations\input_stage_sim\AD1939_input_with_offset.asc

WARNING: Node NC_02 is floating.

WARNING: Less than two connections to node nc_01.  This node is used by r14.
WARNING: Less than two connections to node nc_02.  This node is used by r14.
Direct Newton iteration failed to find .op point.  (Use ".option noopiter" to skip.)
Starting Gmin stepping
Gmin = 10
Gmin = 1.07374
Gmin = 0.115292
Gmin = 0.0123794
Gmin = 0.00132923
Gmin = 0.000142725
Gmin = 1.5325e-05
Gmin = 1.6455e-06
Gmin = 1.76685e-07
Gmin = 1.89714e-08
Gmin = 2.03704e-09
Gmin = 2.18725e-10
Gmin = 2.34854e-11
Gmin = 2.52173e-12
Gmin = 2.70769e-13
Gmin = 0
Gmin stepping succeeded in finding the operating point.


Date: Sun Sep 24 23:52:40 2023
Total elapsed time: 1.119 seconds.

tnom = 27
temp = 27
method = modified trap
totiter = 50754
traniter = 50370
tranpoints = 25186
accept = 17553
rejected = 7633
matrix size = 28
fillins = 16
solver = Normal
Avg thread counts: 1.0/1.1/1.1/1.0
Matrix Compiler1: 2.14 KB object code size  0.5/0.4/[0.3]
Matrix Compiler2: 2.92 KB object code size  0.2/0.2/[0.2]

