Circuit: * C:\Users\Aron\Documents\GitHub\Digital_guitar_effect\pcb\simulations\input_stage_sim\AD1939_input_with_offset.asc

WARNING: Less than two connections to node nc_01.  This node is used by r8.
WARNING: Less than two connections to node nc_02.  This node is used by r9.
Direct Newton iteration failed to find .op point.  (Use ".option noopiter" to skip.)
Starting Gmin stepping
Gmin = 10
Gmin = 1.07374
Gmin = 0.115292
Gmin = 0.0123794
Gmin = 0.00132923
Gmin = 0.000142725
Gmin = 1.5325e-05
Gmin = 1.6455e-06
vernier = 0.5
vernier = 0.25
vernier = 0.125
vernier = 0.166667
Gmin = 1.35441e-06
vernier = 0.222222
Gmin = 8.42755e-07
vernier = 0.296296
vernier = 0.395061
Gmin = 3.92013e-07
vernier = 0.526748
vernier = 0.702331
Gmin = 1.19667e-07
vernier = 0.936441
Gmin = 1.86182e-08
vernier = 1
Gmin = 2.02486e-09
Gmin = 2.17417e-10
Gmin = 2.3345e-11
Gmin = 2.50665e-12
Gmin = 2.69149e-13
Gmin = 0
Gmin stepping succeeded in finding the operating point.


Date: Fri Jan 12 14:02:32 2024
Total elapsed time: 0.123 seconds.

tnom = 27
temp = 27
method = modified trap
totiter = 4438
traniter = 3658
tranpoints = 1830
accept = 1403
rejected = 427
matrix size = 34
fillins = 17
solver = Normal
Avg thread counts: 3.5/5.4/3.2/2.1
Matrix Compiler1: 2.63 KB object code size  0.6/0.4/[0.3]
Matrix Compiler2: 3.71 KB object code size  0.4/0.5/[0.2]

