Circuit: * C:\git\BME\Digital_guitar_effect\pcb\simulations\input_stage_sim\AD1939_input_with_offset.asc

WARNING: Less than two connections to node NC_01.  This node is used by V4.
WARNING: Less than two connections to node NC_02.  This node is used by R7.
WARNING: Less than two connections to node N014.  This node is used by R13.
Direct Newton iteration failed to find .op point.  (Use ".option noopiter" to skip.)
Starting Gmin stepping
Gmin = 10
Gmin = 1.07374
Gmin = 0.115292
Gmin = 0.0123794
Gmin = 0.00132923
vernier = 0.5
vernier = 0.25
vernier = 0.125
vernier = 0.0625
Gmin = 0.00100083
vernier = 0.03125
vernier = 0.015625
vernier = 0.0078125
vernier = 0.00390625
vernier = 0.00195313
Gmin = 0.00100083
vernier = 0.000976563
vernier = 0.000488281
Gmin = 0
Gmin stepping failed

Starting source stepping with srcstepmethod=0
Source Step = 3.0303%
Source Step = 33.3333%
Source Step = 63.6364%
Source Step = 93.9394%
Source stepping succeeded in finding the operating point.


Date: Thu Sep 28 10:10:36 2023
Total elapsed time: 1.188 seconds.

tnom = 27
temp = 27
method = modified trap
totiter = 4139
traniter = 2086
tranpoints = 1044
accept = 1044
rejected = 0
matrix size = 160
fillins = 288
solver = Normal
Thread vector: 40.3/23.9[4] 12.9/7.3[4] 13.3/7.4[4] 1.1/3.8[1]  2592/500
Matrix Compiler1: 20.58 KB object code size  9.4/5.1/[2.5]
Matrix Compiler2: 18.21 KB object code size  5.9/8.0/[1.3]

