Circuit: * C:\Users\Aron\Documents\GitHub\Digital_guitar_effect\pcb\simulations\input_stage_sim\AD1939_input_with_offset.asc

WARNING: Less than two connections to node nc_01.  This node is used by r8.
WARNING: Less than two connections to node nc_02.  This node is used by r9.
Direct Newton iteration failed to find .op point.  (Use ".option noopiter" to skip.)
Starting Gmin stepping
Gmin = 10
Gmin = 1.07374
Gmin = 0.115292
Gmin = 0.0123794
Gmin = 0.00132923
Gmin = 0.000142725
Gmin = 1.5325e-05
vernier = 0.5
Gmin = 2.5711e-06
vernier = 0.666667
Gmin = 6.6012e-07
vernier = 0.888888
vernier = 1
Gmin = 8.6905e-08
Gmin = 9.33136e-09
Gmin = 1.00195e-09
Gmin = 1.07583e-10
Gmin = 1.15517e-11
Gmin = 1.24035e-12
Gmin = 1.33182e-13
Gmin = 0
Gmin stepping succeeded in finding the operating point.


Date: Fri Feb  9 14:35:16 2024
Total elapsed time: 0.092 seconds.

tnom = 27
temp = 27
method = trap
totiter = 522
traniter = 0
tranpoints = 0
accept = 0
rejected = 0
matrix size = 34
fillins = 17
solver = Normal
Avg thread counts: 7.9/0.0/12.0/7.1
Matrix Compiler1:     152 opcodes
Matrix Compiler2: 3.71 KB object code size  0.7/0.8/[0.5]

