Circuit: * C:\Projects\git\onlab\Digital_guitar_effect\pcb\simulations\output_stage_sim\ad1939_dif.asc

Direct Newton iteration failed to find .op point.  (Use ".option noopiter" to skip.)
Starting Gmin stepping
Gmin = 10
Gmin = 1.07374
Gmin = 0.115292
Gmin = 0.0123794
Gmin = 0.00132923
Gmin = 0.000142725
Gmin = 1.5325e-05
Gmin = 1.6455e-06
Gmin = 1.76685e-07
Gmin = 1.89714e-08
Gmin = 2.03704e-09
Gmin = 2.18725e-10
Gmin = 2.34854e-11
Gmin = 2.52173e-12
Gmin = 2.70769e-13
Gmin = 0
Gmin stepping succeeded in finding the operating point.


Date: Sun Oct  1 13:15:09 2023
Total elapsed time: 0.105 seconds.

tnom = 27
temp = 27
method = modified trap
totiter = 2510
traniter = 2132
tranpoints = 1067
accept = 1061
rejected = 6
matrix size = 20
fillins = 4
solver = Normal
Avg thread counts: 2.0/3.0/3.0/2.0
Matrix Compiler1:      67 opcodes  0.2/[0.1]/0.1
Matrix Compiler2: 1.76 KB object code size  0.1/0.2/[0.1]

