Circuit: * C:\Users\Aron\Documents\GitHub\Digital_guitar_effect\pcb\simulations\output_stage_sim\ad1939_dif.asc

WARNING: Less than two connections to node vout.  This node is used by r9.
Direct Newton iteration failed to find .op point.  (Use ".option noopiter" to skip.)
Starting Gmin stepping
Gmin = 10
Gmin = 1.07374
Gmin = 0.115292
Gmin = 0.0123794
Gmin = 0.00132923
Gmin = 0.000142725
Gmin = 1.5325e-05
Gmin = 1.6455e-06
Gmin = 1.76685e-07
Gmin = 1.89714e-08
Gmin = 2.03704e-09
Gmin = 2.18725e-10
Gmin = 2.34854e-11
Gmin = 2.52173e-12
Gmin = 2.70769e-13
Gmin = 0
Gmin stepping succeeded in finding the operating point.


Date: Fri Dec  8 19:42:56 2023
Total elapsed time: 0.193 seconds.

tnom = 27
temp = 27
method = modified trap
totiter = 2520
traniter = 2144
tranpoints = 1073
accept = 1065
rejected = 8
matrix size = 20
fillins = 4
solver = Normal
Avg thread counts: 2.9/4.7/4.7/2.9
Matrix Compiler1: 1.11 KB object code size  0.8/0.6/[0.4]
Matrix Compiler2: 1.72 KB object code size  0.6/0.8/[0.4]

