Circuit: * C:\Projects\git\onlab\Digital_guitar_effect\pcb\simulations\output_stage_sim\AD1934_output_stage_sim.asc

WARNING: Less than two connections to node n005.  This node is used by r1.
Direct Newton iteration failed to find .op point.  (Use ".option noopiter" to skip.)
Starting Gmin stepping
Gmin = 10
Gmin = 1.07374
Gmin = 0.115292
Gmin = 0.0123794
Gmin = 0.00132923
Gmin = 0.000142725
Gmin = 1.5325e-05
Gmin = 1.6455e-06
Gmin = 1.76685e-07
Gmin = 1.89714e-08
Gmin = 2.03704e-09
Gmin = 2.18725e-10
Gmin = 2.34854e-11
Gmin = 2.52173e-12
Gmin = 2.70769e-13
Gmin = 0
Gmin stepping succeeded in finding the operating point.


Date: Wed Sep 20 15:49:37 2023
Total elapsed time: 0.053 seconds.

tnom = 27
temp = 27
method = trap
totiter = 357
traniter = 0
tranpoints = 0
accept = 0
rejected = 0
matrix size = 21
fillins = 7
solver = Normal
Avg thread counts: 6.9/0.0/14.5/1.6
Matrix Compiler1:      83 opcodes
Matrix Compiler2: off  [0.1]/0.2/0.1

